/*--------------------------------*- C++ -*----------------------------------*\
| =========                 |                                                 |
| \\      /  F ield         | OpenFOAM: The Open Source CFD Toolbox           |
|  \\    /   O peration     | Version:  v2406                                 |
|   \\  /    A nd           | Website:  www.openfoam.com                      |
|    \\/     M anipulation  |                                                 |
\*---------------------------------------------------------------------------*/
FoamFile
{
    version     2.0;
    `format'    ascii;
    class       dictionary;
    location    "system";
    object      blockMeshDict;
}
// * * * * * * * * * * * * * * * * * * * * * * * * * * * * * * * * * * * * * //

scale 1;

vertices
(
    (-0.1 -0.4 -0.05) //0
    (0.1 -0.4 -0.05)  //1
    (0.1 0.4 -0.05)   //2
    (-0.1 0.4 -0.05)  //3

    (-0.1 -0.4 0.05)  //4
    (0.1 -0.4 0.05)  //5
    (0.1 0.4 0.05)  //6
    (-0.1 0.4 0.05)  //7
);

blocks
(
    hex (0 1 2 3 4 5 6 7) (800 3200 1) simpleGrading (1 1 1)
);

edges
(
);
boundary
(
    atmosphere
    {
       // type wall;
         type patch;
        faces
        (
            (3 7 6 2)
        );
    }
    lowerWall
    {
        type wall;
        faces
        (
            (1 5 4 0)
        );
    }
    leftWall
    {
          // type wall;
         type cyclic;
         neighbourPatch rightWall;
        faces
        (
            (0 4 7 3)
        );
    }
    rightWall
    {
          // type wall;
        // type symmetryPlane;
         type cyclic;
         neighbourPatch leftWall;
        faces
 (
            (2 6 5 1)
        );
    }
    frontAndBack
    {
        type empty;
        faces
        (
            (0 3 2 1)
            (4 5 6 7)
        );
    }
);

mergePatchPairs
(
);
