/*--------------------------------*- C++ -*----------------------------------*\
| =========                 |                                                 |
| \\      /  F ield         | OpenFOAM: The Open Source CFD Toolbox           |
|  \\    /   O peration     | Version:  v2406                                 |
|   \\  /    A nd           | Website:  www.openfoam.com                      |
|    \\/     M anipulation  |                                                 |
\*---------------------------------------------------------------------------*/
FoamFile
{
    version     2.0;
    `format'    ascii;
    class       dictionary;
    location    "system";
    object      blockMeshDict;
}
// * * * * * * * * * * * * * * * * * * * * * * * * * * * * * * * * * * * * * //

scale 1;

vertices
(
    (-0.1 -0.4 -0.05) //0
    (0.1 -0.4 -0.05)  //1
    (0.1 0.4 -0.05)   //2
    (-0.1 0.4 -0.05)  //3

    (-0.1 -0.4 0.05)  //4
    (0.1 -0.4 0.05)  //5
    (0.1 0.4 0.05)  //6
    (-0.1 0.4 0.05)  //7
);

blocks
(
    hex (0 1 2 3 4 5 6 7) (800 3200 1) simpleGrading (1 1 1)
);

edges
(
);
