/*--------------------------------*- C++ -*----------------------------------*\
| =========                 |                                                 |
| \\      /  F ield         | OpenFOAM: The Open Source CFD Toolbox           |
|  \\    /   O peration     | Version:  v2406                                 |
|   \\  /    A nd           | Website:  www.openfoam.com                      |
|    \\/     M anipulation  |                                                 |
\*---------------------------------------------------------------------------*/
FoamFile
{
    version     2.0;
    format      ascii;
    class       dictionary;
    location    "system";
    object      controlDict;
}
// * * * * * * * * * * * * * * * * * * * * * * * * * * * * * * * * * * * * * //

application     interIsoFoam;

// startFrom       startTime;
 startFrom       latestTime;

startTime       0;

stopAt          endTime;

endTime         0.55;

deltaT          0.0001;
// libs ("libdynamicFvMesh.so");
// writeControl    runTime;
writeControl    adjustableRunTime;

writeInterval   0.005;

purgeWrite      0;

writeFormat     binary;

writePrecision  6;

writeCompression off;

timeFormat      general;

timePrecision   6;

runTimeModifiable yes;

adjustTimeStep  yes;

maxCo           0.5;
maxAlphaCo      0.5;
// maxDeltaT       1;
// functions
// {
   // refinement
    // {
     //   type            volScalarFieldValue;
       //  libs            ("libfieldFunctionObjects.so");
        //enabled         true;
       // outputControl   timeStep;
        // outputInterval  1;
        // log             false;
       // valueOutput     true;
       // name            refinementLevel;
  //      field           refinementLevel;
   // }
// }

// ************************************************************************* //
