/*--------------------------------*- C++ -*----------------------------------*\
| =========                 |                                                 |
| \\      /  F ield         | OpenFOAM: The Open Source CFD Toolbox           |
|  \\    /   O peration     | Version:  v2406                                 |
|   \\  /    A nd           | Website:  www.openfoam.com                      |
|    \\/     M anipulation  |                                                 |
\*---------------------------------------------------------------------------*/
FoamFile
{
    version     2.0;
    `format'    ascii;
    class       dictionary;
    location    "system";
    object      fvSolution;
}
// * * * * * * * * * * * * * * * * * * * * * * * * * * * * * * * * * * * * * //

solvers
{
    "alpha.water.*"
    {
         nAlphaCorr      2;
        nAlphaSubCycles  2;
        isofaceTol      1e-6;
        surfCellTol     1e-6;
        nAlphaBounds    3;
        snapTol         1e-12;
        clip            true;
        reconstructionScheme isoAlpha;
        writeFields     true;
        cAlpha          1; // Note: cAlpha is not used by isoAdvector but must
                           // be specified because interfacePropertes object
                           // reads it during construction.
    }

    "pcorr.*"
    {
        solver          PCG;
        preconditioner  DIC;
        tolerance       1e-9;
        relTol          0;
    }

    p_rgh
    {
     solver          GAMG;
    tolerance       1e-7;
    relTol          0.01;

    smoother        GaussSeidel;
    nPreSweeps      0;
    nPostSweeps     2;
    nFinestSweeps   2;

    cacheAgglomeration true;
    agglomerator    faceAreaPair;
    mergeLevels     1;
   
   }

    p_rghFinal
    {
        $p_rgh;
        relTol          0;
    }

    U
    {
        solver          smoothSolver;
        smoother        symGaussSeidel;
        tolerance       1e-08;
        relTol          0;
    }
}

PIMPLE
{
    momentumPredictor   no;
    nOuterCorrectors    2;
    nCorrectors         3;
    nNonOrthogonalCorrectors 0;
    pRefCell            0;
    pRefValue           0;
}

relaxationFactors
{
    fields
    {
        "p_rgh"     0.3;
        "p_rghFinal" 1;
    }

    equations
    {
        "U"         0.7;
        "UFinal"    1;
        "alpha.*"   0.5;
    }
}

