/*--------------------------------*- C++ -*----------------------------------*\
| =========                 |                                                 |
| \\      /  F ield         | OpenFOAM: The Open Source CFD Toolbox           |
|  \\    /   O peration     | Version:  v2406                                 |
|   \\  /    A nd           | Website:  www.openfoam.com                      |
|    \\/     M anipulation  |                                                 |
\*---------------------------------------------------------------------------*/
FoamFile
{
    version     2.0;
    `format'    ascii;
    class       dictionary;
    location    "system";
    object      snappyHexMeshDict;
}
// * * * * * * * * * * * * * * * * * * * * * * * * * * * * * * * * * * * * * //

mergeTolerance 1e-6;

castellatedMesh true;
snap            false;     // to disable morphing + feature snap
addLayers       false;

geometry
{
    perturbedblock.stl
    {
        type triSurfaceMesh;
        name waterRegion;  // to match with the setFieldsDict
    }
}

castellatedMeshControls
{
    maxLocalCells        1000000;
    maxGlobalCells       2000000;
    minRefinementCells   0;
    nCellsBetweenLevels  1;

    features ();

    refinementSurfaces {};

    resolveFeatureAngle  30;

    refinementRegions
    {
        waterRegion
        {
            mode inside;
            levels ((1E15 0));  // No refinement
        }
    }

    locationInMesh (0 0 0);  // ✅ Inside your domain
    allowFreeStandingZoneFaces true;
}

snapControls
{
    // Disabled snap, but required to be present in v2406
    nSmoothPatch   3;
    tolerance      2.0;
    nSolveIter     30;
    nRelaxIter     5;

    implicitFeatureSnap false;
    explicitFeatureSnap false;
    multiRegionFeatureSnap false;
}

meshQualityControls
{
    maxNonOrtho             65;
    maxBoundarySkewness     20;
    maxInternalSkewness     4;
    maxConcave              80;
    minVol                  1e-13;
    minTetQuality           1e-9;
    minArea                 -1;
    minTwist                0.02;
    minDeterminant          0.001;
    minFaceWeight           0.02;
    minVolRatio             0.01;
    minTriangleTwist        -1;

    relaxed
    {
        maxNonOrtho         75;
    }

    nSmoothScale            4;
    errorReduction          0.75;
}

addLayersControls
{
    relativeSizes           true;
    layers                  {};
    expansionRatio          1.0;
    finalLayerThickness     0.3;
    minThickness            0.1;
    nGrow                   0;
    featureAngle            60;
    slipFeatureAngle        30;
    nRelaxIter              3;
    nSmoothSurfaceNormals   1;
    nSmoothNormals          3;
    nSmoothThickness        10;
    maxFaceThicknessRatio   0.5;
    maxThicknessToMedialRatio 0.3;
    minMedianAxisAngle      90;
    nBufferCellsNoExtrude   0;
    nLayerIter              50;
    nRelaxedIter            20;
}
